*Heading
** Job name:  Model name: 
** Generated by: Bonemat
*Preprint, echo=NO, model=NO, history=NO, contact=NO
**
*Node
	 1,	   0.0000000000000E+00,	   0.0000000000000E+00,	   0.0000000000000E+00
	 2,	   1.0000000000000E+00,	   0.0000000000000E+00,	   0.0000000000000E+00
	 3,	   0.0000000000000E+00,	   1.0000000000000E+00,	   0.0000000000000E+00
	 4,	   0.0000000000000E+00,	   0.0000000000000E+00,	   1.0000000000000E+00
	 5,	   1.0000000000000E+00,	   1.0000000000000E+00,	   1.0000000000000E+00
	 6,	   5.0000000000000E-01,	   0.0000000000000E+00,	   0.0000000000000E+00
	 7,	   0.0000000000000E+00,	   5.0000000000000E-01,	   0.0000000000000E+00
	 8,	   0.0000000000000E+00,	   0.0000000000000E+00,	   5.0000000000000E-01
	 9,	   5.0000000000000E-01,	   5.0000000000000E-01,	   0.0000000000000E+00
	10,	   5.0000000000000E-01,	   0.0000000000000E+00,	   5.0000000000000E-01
	11,	   1.0000000000000E+00,	   5.0000000000000E-01,	   5.0000000000000E-01
	12,	   0.0000000000000E+00,	   5.0000000000000E-01,	   5.0000000000000E-01
	13,	   5.0000000000000E-01,	   1.0000000000000E+00,	   5.0000000000000E-01
	14,	   5.0000000000000E-01,	   5.0000000000000E-01,	   1.0000000000000E+00
*Element, type=C3D10
	2, 	 3,	 1,	 2,	 4,	 7,	 6,	 9,	12,	 8,	10
	1, 	 5,	 2,	 4,	 3,	11,	10,	14,	13,	 9,	12
*Elset, elset=Set_1
2, 1
*Solid Section, elset=Set_1, material=Mat_1
**
*Material, name=Mat_1
*Elastic
1.00000000, 1.00000000
