*Heading
** Job name:  Model name: 
** Generated by: Bonemat
*Preprint, echo=NO, model=NO, history=NO, contact=NO
**
*Node
	  4613,	   9.1318016052246E+01,	   1.6341191101074E+02,	  -3.7706745147705E+01
	  4808,	   9.3473068237305E+01,	   1.5769909667969E+02,	  -3.8054424285889E+01
	  4809,	   9.2533782958984E+01,	   1.5950514221191E+02,	  -3.7809280395508E+01
	  4810,	   9.1811988830566E+01,	   1.6142108154297E+02,	  -3.7676658630371E+01
	  5287,	   9.1168693542480E+01,	   1.6259651184082E+02,	  -3.9484752655029E+01
	  6994,	   9.2200080871582E+01,	   1.5862136840820E+02,	  -3.9536098480225E+01
	  6996,	   9.1541183471680E+01,	   1.6058210754395E+02,	  -3.9462924957275E+01
	  6997,	   9.1456718444824E+01,	   1.5977891540527E+02,	  -4.1244647979736E+01
	 13641,	   9.7557258605957E+01,	   1.6552662658691E+02,	  -4.3703666687012E+01
	 13898,	   9.8069778442383E+01,	   1.6424667358398E+02,	  -4.2189449310303E+01
	 13900,	   9.6567268371582E+01,	   1.6435235595703E+02,	  -3.9647563934326E+01
	 17009,	   9.7468284606934E+01,	   1.6509483337402E+02,	  -4.2208950042725E+01
	 17011,	   9.5965782165527E+01,	   1.6520051574707E+02,	  -3.9667060852051E+01
	 17012,	   9.5857116699219E+01,	   1.6593238830566E+02,	  -4.2349899291992E+01
	 17013,	   9.6369628906250E+01,	   1.6465243530273E+02,	  -4.0835685729980E+01
	 18634,	   9.7777091979980E+01,	   1.6360527038574E+02,	  -4.4383327484131E+01
	 22589,	   9.8239891052246E+01,	   1.6282557678223E+02,	  -4.2689601898193E+01
	 22593,	   9.7141235351563E+01,	   1.6238317871094E+02,	  -4.1316337585449E+01
	 22596,	   9.6848548889160E+01,	   1.6174177551270E+02,	  -4.3510215759277E+01
	 22606,	   9.4920608520508E+01,	   1.6463528442383E+02,	  -3.8686058044434E+01
** ... 66 like lines cut
*Element, type=C3D10
	37411, 	119324,	  6996,	  6994,	  4809,	 70910,	 70925,	 70920,	 84679,	 84682,	 84683
	39600, 	119324,	  6997,	  6994,	  6996,	 70906,	 70924,	 70920,	 70910,	 70913,	 70925
	45136, 	119324,	  4809,	  6994,	  4808,	 84679,	 84683,	 70920,	 84688,	 84694,	 84691
	55228, 	118223,	  4809,	  4810,	  6996,	 84680,	 84686,	 84674,	 70911,	 84682,	 84675
	59661, 	118223,	  6996,	  4810,	  5287,	 70911,	 84675,	 84674,	 81778,	 81780,	 84676
	59812, 	118223,	  4613,	  5287,	  4810,	 85920,	 85923,	 81778,	 84674,	 85925,	 84676
	64262, 	118223,	  4809,	  6996,	119324,	 84680,	 84682,	 70911,	 38194,	 84679,	 70910
	60717, 	118223,	117226,	  4809,	119324,	 44322,	 84681,	 84680,	 38194,	 44321,	 84679
	74155, 	121109,	  5287,	118222,	118223,	 81777,	 81779,	 38198,	 38191,	 81778,	 38203
	71673, 	118223,	  6996,	  5287,	118222,	 70911,	 81780,	 81778,	 38203,	 70912,	 81779
	76382, 	118223,	  6996,	118222,	119324,	 70911,	 70912,	 38203,	 38194,	 70910,	 38202
	61839, 	115432,	122293,	120116,	122918,	 17009,	 28361,	 28357,	 13898,	 17013,	 28360
	62740, 	120116,	121111,	121956,	115432,	 28363,	 22596,	 28362,	 28357,	 22589,	 18634
	64721, 	115432,	122987,	120116,	122293,	 13641,	 28359,	 28357,	 17009,	 17012,	 28361
	73973, 	121111,	119959,	122918,	119324,	 29266,	 29262,	 22593,	 32674,	 32675,	 32672
	76884, 	118223,	116271,	123289,	121109,	 51055,	 51051,	 38189,	 38191,	 51053,	 22606
	77076, 	122293,	121109,	122918,	123289,	 22609,	 22607,	 17013,	 17011,	 22606,	 13900
*Elset, elset=Set_1
37411, 39600, 45136, 55228, 59661, 59812, 64262
*Solid Section, elset=Set_1, material=Mat_3
*Elset, elset=Set_2
60717, 74155, 73973, 76884, 77076
*Solid Section, elset=Set_2, material=Mat_2
*Elset, elset=Set_3
71673, 76382
*Solid Section, elset=Set_3, material=Mat_4
*Elset, elset=Set_4
61839, 62740, 64721
*Solid Section, elset=Set_4, material=Mat_1
**
*Material, name=Mat_1
*Elastic
3644.16992200, 0.30000000
*Material, name=Mat_2
*Elastic
3191.51001000, 0.30000000
*Material, name=Mat_3
*Elastic
2289.17993200, 0.30000000
*Material, name=Mat_4
*Elastic
1236.48999000, 0.30000000
