*Heading
** Job name:  Model name: 
** Generated by: Bonemat
*Preprint, echo=NO, model=NO, history=NO, contact=NO
**
*Node
	2596652,	   1.1501694488525E+02,	  -1.7375326538086E+02,	  -3.3136364746094E+02
	2596654,	   1.1602416992188E+02,	  -1.7588737487793E+02,	  -3.3244729614258E+02
	2596656,	   1.1492076873779E+02,	  -1.7263790893555E+02,	  -3.3253222656250E+02
	2596658,	   1.1446520233154E+02,	  -1.7376979064941E+02,	  -3.3359664916992E+02
	2596657,	   1.1463540649414E+02,	  -1.7491882324219E+02,	  -3.3244589233398E+02
	2596659,	   1.1341966247559E+02,	  -1.7433039855957E+02,	  -3.3130856323242E+02
	2596655,	   1.1480843353271E+02,	  -1.7529895019531E+02,	  -3.3130999755859E+02
	2596653,	   1.1630953216553E+02,	  -1.7360647583008E+02,	  -3.3253363037109E+02
	2596646,	   1.1640570831299E+02,	  -1.7472181701660E+02,	  -3.3136508178711E+02
	2596648,	   1.1621336364746E+02,	  -1.7249113464355E+02,	  -3.3370220947266E+02
	2596650,	   1.1530223083496E+02,	  -1.7475486755371E+02,	  -3.3583105468750E+02
	2596649,	   1.1564263153076E+02,	  -1.7705293273926E+02,	  -3.3352954101563E+02
	2596651,	   1.1321115112305E+02,	  -1.7587608337402E+02,	  -3.3125491333008E+02
	2596647,	   1.1362817382813E+02,	  -1.7278469848633E+02,	  -3.3136224365234E+02
	2596660,	   1.1592799377441E+02,	  -1.7477203369141E+02,	  -3.3361587524414E+02
	2596661,	   1.1575779724121E+02,	  -1.7362300109863E+02,	  -3.3476663208008E+02
	2596662,	   1.1547243499756E+02,	  -1.7590390014648E+02,	  -3.3468029785156E+02
	2596663,	   1.1442689514160E+02,	  -1.7646450805664E+02,	  -3.3239221191406E+02
*Element, type=C3D10
	3436335, 	2596647,	2596649,	2596646,	2596651,	2596657,	2596654,	2596652,	2596659,	2596663,	2596655
	3436336, 	2596647,	2596649,	2596650,	2596648,	2596657,	2596662,	2596658,	2596656,	2596660,	2596661
	3436337, 	2596647,	2596649,	2596648,	2596646,	2596657,	2596660,	2596656,	2596652,	2596654,	2596653
	3436338, 	2596647,	2596649,	2596648,	2596646,	2596657,	2596660,	2596656,	2596652,	2596654,	2596653
	3436339, 	2596647,	2596649,	2596648,	2596646,	2596657,	2596660,	2596656,	2596652,	2596654,	2596653
	3436340, 	2596647,	2596649,	2596648,	2596646,	2596657,	2596660,	2596656,	2596652,	2596654,	2596653
	3436341, 	2596647,	2596649,	2596648,	2596646,	2596657,	2596660,	2596656,	2596652,	2596654,	2596653
	3436342, 	2596647,	2596649,	2596648,	2596646,	2596657,	2596660,	2596656,	2596652,	2596654,	2596653
	3436343, 	2596647,	2596649,	2596648,	2596646,	2596657,	2596660,	2596656,	2596652,	2596654,	2596653
	3436344, 	2596647,	2596649,	2596648,	2596646,	2596657,	2596660,	2596656,	2596652,	2596654,	2596653
*Elset, elset=Set_1
3436335, 3436336, 3436337, 3436338, 3436339, 3436340, 3436341, 3436342, 3436343, 3436344
*Solid Section, elset=Set_1, material=Mat_1
**
*Material, name=Mat_1
*Density
0.00000000,
*Elastic
0.00000000, 0.30000000
