*Heading
** Job name:  Model name: 
** Generated by: Bonemat
*Preprint, echo=NO, model=NO, history=NO, contact=NO
**
*Node
	2596645,	   1.1232580566406E+02,	  -1.7424642944336E+02,	  -3.3319607543945E+02
	2596626,	   1.1640570831299E+02,	  -1.7472181701660E+02,	  -3.3136508178711E+02
	2596623,	   1.1248371124268E+02,	  -1.7432968139648E+02,	  -3.3518707275391E+02
	2596622,	   1.0985150909424E+02,	  -1.7618020629883E+02,	  -3.3222509765625E+02
	2596628,	   1.1362817382813E+02,	  -1.7278469848633E+02,	  -3.3136224365234E+02
	2596619,	   1.0966515350342E+02,	  -1.7390449523926E+02,	  -3.3454327392578E+02
	2596627,	   1.1621336364746E+02,	  -1.7249113464355E+02,	  -3.3370220947266E+02
	2596621,	   1.1069007873535E+02,	  -1.7390274047852E+02,	  -3.3005856323242E+02
	2596620,	   1.1050350189209E+02,	  -1.7162879943848E+02,	  -3.3237652587891E+02
	2596630,	   1.1250175476074E+02,	  -1.7628010559082E+02,	  -3.3406039428711E+02
	2596625,	   1.1564263153076E+02,	  -1.7705293273926E+02,	  -3.3352954101563E+02
	2596624,	   1.1530223083496E+02,	  -1.7475486755371E+02,	  -3.3583105468750E+02
	2596631,	   1.1302471923828E+02,	  -1.7240023803711E+02,	  -3.3419665527344E+02
	2596629,	   1.1321115112305E+02,	  -1.7587608337402E+02,	  -3.3125491333008E+02
	2596664,	   1.1008432769775E+02,	  -1.7276664733887E+02,	  -3.3345989990234E+02
	2596665,	   1.0975833129883E+02,	  -1.7504235839844E+02,	  -3.3338418579102E+02
	2596666,	   1.1107443237305E+02,	  -1.7411709594727E+02,	  -3.3486517333984E+02
	2596667,	   1.1108345794678E+02,	  -1.7509230041504E+02,	  -3.3430184936523E+02
	2596668,	   1.1134494018555E+02,	  -1.7315237426758E+02,	  -3.3436996459961E+02
	2596669,	   1.1099547576904E+02,	  -1.7407546997070E+02,	  -3.3386968994141E+02
** ... 40 like lines cut
*Element, type=C3D10
	3436313, 	2596628,	2596625,	2596626,	2596629,	2596695,	2596693,	2596699,	2596703,	2596696,	2596700
	3436314, 	2596645,	2596631,	2596620,	2596628,	2596709,	2596673,	2596674,	2596705,	2596704,	2596672
	3436315, 	2596645,	2596631,	2596623,	2596619,	2596709,	2596684,	2596685,	2596669,	2596668,	2596666
	3436316, 	2596645,	2596630,	2596619,	2596623,	2596708,	2596667,	2596669,	2596685,	2596683,	2596666
	3436317, 	2596645,	2596628,	2596621,	2596629,	2596705,	2596676,	2596678,	2596707,	2596703,	2596677
	3436318, 	2596628,	2596625,	2596624,	2596627,	2596695,	2596686,	2596688,	2596701,	2596694,	2596687
	3436319, 	2596628,	2596625,	2596629,	2596624,	2596695,	2596696,	2596703,	2596688,	2596686,	2596689
	3436320, 	2596645,	2596630,	2596629,	2596622,	2596708,	2596706,	2596707,	2596681,	2596680,	2596679
	3436321, 	2596645,	2596619,	2596622,	2596620,	2596669,	2596665,	2596681,	2596674,	2596664,	2596671
	3436322, 	2596645,	2596628,	2596620,	2596621,	2596705,	2596672,	2596674,	2596678,	2596676,	2596670
	3436323, 	2596645,	2596631,	2596619,	2596620,	2596709,	2596668,	2596669,	2596674,	2596673,	2596664
	3436324, 	2596622,	2596621,	2596629,	2596645,	2596675,	2596677,	2596679,	2596681,	2596678,	2596707
	3436325, 	2596645,	2596630,	2596622,	2596619,	2596708,	2596680,	2596681,	2596669,	2596667,	2596665
	3436326, 	2596645,	2596620,	2596622,	2596621,	2596674,	2596671,	2596681,	2596678,	2596670,	2596675
	3436327, 	2596624,	2596631,	2596645,	2596628,	2596691,	2596709,	2596692,	2596688,	2596704,	2596705
	3436328, 	2596629,	2596630,	2596645,	2596624,	2596706,	2596708,	2596707,	2596689,	2596690,	2596692
	3436329, 	2596645,	2596624,	2596630,	2596623,	2596692,	2596690,	2596708,	2596685,	2596682,	2596683
	3436330, 	2596628,	2596625,	2596627,	2596626,	2596695,	2596694,	2596701,	2596699,	2596693,	2596698
	3436331, 	2596624,	2596645,	2596629,	2596628,	2596692,	2596707,	2596689,	2596688,	2596705,	2596703
	3436332, 	2596645,	2596624,	2596623,	2596631,	2596692,	2596682,	2596685,	2596709,	2596691,	2596684
	3436333, 	2596629,	2596630,	2596624,	2596625,	2596706,	2596690,	2596689,	2596696,	2596697,	2596686
	3436334, 	2596624,	2596631,	2596628,	2596627,	2596691,	2596704,	2596688,	2596687,	2596702,	2596701
*Elset, elset=Set_1
3436313, 3436314, 3436315, 3436316, 3436317, 3436318, 3436319, 3436320, 3436321, 3436322, 3436323, 3436324, 3436325, 3436326, 3436327, 3436328, 
3436329, 3436330, 3436331, 3436332, 3436333, 3436334
*Solid Section, elset=Set_1, material=Mat_1
**
*Material, name=Mat_1
*Elastic
0.00000000, 0.30000000
