!! ANSYS Input Deck Generated by HyperMesh Version  : 7.0
!! Generated using HyperMesh-Ansys Template Version : 7.0
/PREP7
!!  NODE Data
CSYS,0
N,1,             0.0,             0.0,             0.0
N,2,             1.0,             0.0,             0.0
N,3,             0.0,             1.0,             0.0
N,4,             0.0,             0.0,             1.0
N,5,             1.0,             1.0,             1.0
N,6,             0.5,             0.0,             0.0
N,7,             0.0,             0.5,             0.0
N,8,             0.0,             0.0,             0.5
N,9,             0.5,             0.5,             0.0
N,10,             0.5,             0.0,             0.5
N,11,             1.0,             0.5,             0.5
N,12,             0.0,             0.5,             0.5
N,13,             0.5,             1.0,             0.5
N,14,             0.5,             0.5,             1.0
!!

MP,EX  ,2,             1000.0
MP,NUXY,2,             0.3
ET,2,187

MP,EX  ,3,             200000.0
MP,NUXY,3,             0.33
ET,3,187



!ET,3,187
!!HMNAME COMP 
!!   3-3-3 "tet"
!!HMCOLOR COMP 
!!   3-3-3 8
TYPE, 2  $ MAT, 2  $ REAL, 3

ESYS, 0
EN,       2,       3,       1,       2,       4,       7,       6,       9,      12
EMORE,       8,      10
TYPE, 3  $ MAT, 3  $ REAL, 3
EN,       1,       5,       2,       4,       3,      11,      10,      14,      13
EMORE,       9,      12
!ESEL, S, TYPE,,3
!ESEL, R, MAT,,3
!ESEL, R, REAL,,3
CM, tet, ELEM
ESEL, ALL

!! Loadstep Data 

!! Loadstep Data (all loads and boundary conditions).
LSCLEAR, ALL
LSWRITE,1

FINISH
