/PREP7
/NOPR
/TITLE,                                                                        
DOF,DELETE

N,    4613, 91.3180161, 163.411911, -37.7067451    
N,    4808, 93.4730682, 157.699097, -38.0544243    
N,    4809, 92.5337830, 159.505142, -37.8092804    
N,    4810, 91.8119888, 161.421082, -37.6766586,      90.4889756,     -1.50908576,      17.9557676
N,    5287, 91.1686935, 162.596512, -39.4847527    
N,    6994, 92.2000809, 158.621368, -39.5360985    
N,    6996, 91.5411835, 160.582108, -39.4629250    
N,    6997, 91.4567184, 159.778915, -41.2446480    
N,   13641, 97.5572586, 165.526627, -43.7036667    
N,   13898, 98.0697784, 164.246674, -42.1894493    
N,   13900, 96.5672684, 164.352356, -39.6475639    
N,   17009, 97.4682846, 165.094833, -42.2089500    
N,   17011, 95.9657822, 165.200516, -39.6670609    
N,   17012, 95.8571167, 165.932388, -42.3498993    
N,   17013, 96.3696289, 164.652435, -40.8356857    
N,   18634, 97.7770920, 163.605270, -44.3833275    
N,   22589, 98.2398911, 162.825577, -42.6896019    
N,   22593, 97.1412354, 162.383179, -41.3163376    
N,   22596, 96.8485489, 161.741776, -43.5102158    
N,   22606, 94.9206085, 164.635284, -38.6860580    
! ... 66 like lines cut


MP,EX,     413,  3644.17000
MP,NUXY,     413, 0.300000000
MP,DENS,     413,  3644.17000

MP,EX,     422,  3191.51000
MP,NUXY,     422, 0.300000000
MP,DENS,     422,  3191.51000

MP,EX,     440,  2289.18000
MP,NUXY,     440, 0.300000000
MP,DENS,     440,  2289.18000

MP,EX,     461,  1236.49000
MP,NUXY,     461, 0.300000000
MP,DENS,     461,  1236.49000    


ET,1,187
ET,50,187


TYPE, 50  $ MAT, 440  $ REAL, 2
EN, 37411, 119324, 6996, 6994,4809,70910,70925,70920,84679
EMORE,84682,84683
EN, 39600, 119324, 6997, 6994, 6996,70906,70924,70920,70910
EMORE,70913,70925
EN, 45136,119324, 4809, 6994, 4808,84679,84683,70920,84688
EMORE, 84694,84691
EN, 55228, 118223, 4809, 4810, 6996,84680,84686,84674,70911
EMORE, 84682,84675
EN, 59661, 118223, 6996, 4810, 5287,70911,84675,84674,81778
EMORE, 81780,84676
EN, 59812, 118223, 4613, 5287, 4810,85920,85923,81778,84674
EMORE, 85925,84676
EN, 64262, 118223, 4809, 6996, 119324,84680,84682,70911,38194
EMORE, 84679,70910
CM, TYPE50-REAL2-MAT440, ELEM

TYPE, 50  $ MAT, 422  $ REAL, 2
EN, 60717, 118223, 117226, 4809, 119324,44322,84681,84680,38194
EMORE, 44321,84679
EN, 74155, 121109, 5287, 118222, 118223,81777,81779,38198,38191
EMORE, 81778,38203
CM, TYPE50-REAL2-MAT422, ELEM

TYPE, 50  $ MAT, 461  $ REAL, 2
EN, 71673, 118223, 6996, 5287, 118222,70911,81780,81778,38203
EMORE, 70912,81779
EN, 76382, 118223, 6996, 118222, 119324,70911,70912,38203,38194
EMORE, 70910,38202
CM, TYPE50-REAL2-MAT461, ELEM

TYPE, 1  $ MAT, 413  $ REAL, 2
EN, 61839, 115432, 122293, 120116, 122918,17009,28361,28357,13898
EMORE, 17013,28360
EN, 62740, 120116, 121111, 121956, 115432,28363,22596,28362,28357
EMORE, 22589,18634
EN, 64721, 115432, 122987, 120116, 122293,13641,28359,28357,17009
EMORE, 17012,28361
CM, TYPE1-REAL2-MAT413, ELEM

TYPE, 1  $ MAT, 422  $ REAL, 2
EN, 73973, 121111, 119959, 122918, 119324,29266,29262,22593,32674
EMORE, 32675,32672
EN, 76884, 118223, 116271, 123289, 121109,51055,51051,38189,38191
EMORE, 51053,22606
EN, 77076, 122293, 121109, 122918, 123289,22609,22607,17013,17011
EMORE, 22606,13900
CM, TYPE1-REAL2-MAT422, ELEM


ESEL,ALL

FINISH
